>sp2 370 bases 1C4B5B39 checksum.
VITYDPYAKGFSKMTNSFGIILKSKKAVGIGKGDDANNLSCDRVTCDDAKKYNCPISARF
ENHHAMLHALHPPNLGAYKNAIPSAARGFCNETTSGTAITPLHYTQHFIVTNSFEPDVAS
NKLVEKLDANSGYASP-TINITKSVRIHSEKRPAGTMGKGNTITRVSTCVEKITRHHKES
EAATESGLKWIQCSEQEKGMVSHLRANYAPLTL---------FTIVAKCHDFITHVSAGK
MALWVSKSN----ASAKSDGRASPLDVNDFGNHTVRAKFVDFASVLVMRVQMKEGCSVDG
CDRGIASSHNYQCASG--KNFIEF
>sp6 361 bases 4F51EB85 checksum.
GVKHSLLELSGHKMLNG-TIALKGKKAFGLGKGDDANNLYCIKINCTAIKKLNCPIGPRF
APQHPLLHGVSPPKAASYTKLAHQQSLGFCTGSTHNKAVVEYHYTDRFILINHSDNPGVS
LKFVEILNSYAAYKMVLIVGDLGSAIGWSEPRPEYRMGKGNGFKRVNTSVEKRTKHHKSC
PLTTGDLLAKTDCHPQGNGLVEGLRGSYGLVLV----LLSVRGKLEAKDHDFIAHVSAGK
MALFVQPPP----GHRRKPFRAGSIEEKDVGNATVRNKFCDFSAKAVKDLNILPCCNQQG
PTRGSGGTVDYPCGSQ--KQKSLF
>sp11 389 bases A01BD1C7 checksum.
AVALKLHDMGGHKMSQGTSIALKGRKAVGLGKGDDANNLYCNKIVCTALKKYKCPITDRF
TPQHSVLHNVYQPKLNKYKGGQLEASEHFCIGSTANKKIVEFHETERFIIIDTS-PPGLS
QKLVEILNPYVGYRSV-RIKEGNKPAAWSEPNPSYPMGKGNTGKRVTTCVDKKTKHHKRN
KVGTSNYVAKGDCNQQVSGIGVGIAKPYDVVLGKYALGYNVALNTGGGDKDFIAHVSAGK
MAMIVGLSSNCKPDHRIGDYRAYSMDFEDLGNHTVRSKFCNFPAKLVKRANIAPCCSCIQ
APSQSTGTVGDACGFG--KKKSLF
>sp7 367 bases C8CEC9EE checksum.
GVELAITQLGGHKMTSGFNIVLKGHKAKGLGKGDDANSLYCVAINCFAIKKYNCPISSRF
SPQHPLLHDEPPPKLGDYD-LLRKPSQGFCVGTTTNKAIVEYHYTERFIIINTPTPPGLS
LKLVEIVNAYIGCKSVAALEKAA---GWSEDRPSFPMGKGNTFLRVNTCVEKKTKHHKRT
NLATG-YLAKTFCDENVSGIAEGFRKPYGLNPG-----SIVDFKREPRDQDFISHVSAGK
MALLVSPSSE---PKKREEYSSGSLQPEDLGNHTVRSKFCNFPATLVKRLSVKSCPAEQL
ATTFQGGSVNYKCGFE--KKRQLF
>sp10 343 bases DF316E2 checksum.
SVELDLHNVGGHKMTQGFAIRLHGKKANGLGKGDHANNLYCDSITCDKAKKYHCPIGTRF
VPQHSLLSNIYAANLAKYN-LHKR--PGFCTGTTTNKAIVEFHYTESFIVINSVEPPGLS
LKVVEIKNPDVEFKPL-KIREAGG--QHSEPPPSLPMGKGNTFKRVNTCVEKKTKHHKDV
NTFTINILAKANCPQQDSGIIK-IPEPYGVVIFPLI------LRSQGANKDFIPHVSAGK
MAMLVSPTDSI--AHKRDGYRGVPMRVEDLGNQTVKSRFYNFPLLLVKRVPVV-CSASFK
VLRKVTGRASDLCGLG--KRHQFF
>sp3 351 bases 90E5C882 checksum.
KVQFE---LGGQKMIQGFGIILRERKAIGLGKGDDANNLYCKKISASDVKKYNCPIPSRF
ANQNPMLHYVSPPKLGKYKNFVHQ-CQGFCTGTSQNKAIVEAHYTERFILINTFNPPGLS
LKLVEILNGVSGTKSGPIKKETKG-RDWSEKRPTTPMGKGNTFKRVDTCVEKKTKHHKQS
SL-DDNYFPRASCNETVSGAVENLRGPYGLFMG----SQLLSAKKDAREQDFIAHVSAGK
MALWVSPSS----PHNRQ-YRAGAMEVDDLGNQTVRSKFCQFAARLVPNVHELPCSLTQH
PASE-GGTSKYACGNG--KCQLLF
>sp16 355 bases 8056BC9D checksum.
TVELA---LGGNKMTQGFGIVEKGRKAIGLGKSNDANNLYCVYLSCSNLKKYNCPISSRF
GPKHPELHKVGACMVGKYK-NVHEASNGFCTGTTNNKAMVEYHYTERFILINAIDPPGLN
LKLVEILNGYVGYKSPPSSNSTG---GRSDSRPAYPMSKGNTFKRVNTCVEKKTKHHKQE
NLTTGNYLAKTACNEQVSGIIEGLRGHYGLAVG----GPVLEYKKEAREQDFIAHVPAGK
MALLVSPSS----SPDRRNYRAGSMEVDDLGNHTVRSKFCNFQAPLVISLNIAACCSSIG
KDAFEGGTI---CEFG--RKQESF
>sp9 363 bases E7DFC727 checksum.
VVALRLYQLGGHKMTEGFPIVLKNHKAVGLGKGDHANNLYCNAIQCVAIKKFNCPIWSRF
APQNALLKNVHVPD-YVYKALVKQ--GGFCTGTTANKAIVEFHFVDRFIVINRVEPPGLS
LKIVEVLNPNTVASSV-RINEAGG--GSSEPHPTYPMGKGNTIKRVNTCVEKKTKHHKQP
ELL--NYLAKANCAQQVSEIVAGVHQPYGVVLHPLVGPKLLQFRRDEAPKDFIAHVSAGQ
MALLVNPSNEVLPSHRSEAYRTGAIEIEDMGNHTVRSRFCNFPEKLVKRLNVVPTTQCFK
RTSRPVGAVMYACGFG--KQHQTF
>sp8 358 bases DF7ED06E checksum.
TVELNLHRLGGHKMTHGFNIALKGRKAIGLGKGDHANNLYCSSIACTAVKKYNCPISSRF
APQNGLLNNLDSPSLGKYKNFVKQ--GGFCTGTTANKAIVDFHYTERFIVINTIEPPGLS
LKLVEILNCNAAYKNV-KIKEAAG--GWSEHQPSYPMGKGNTFKRLHTCVEKKTSHHKQT
NLLTSNYLAKEDCVQQASGIVKGIQQPYGLVLYPLLGAKLLDSRRDGADKDFIAQVSAGK
MALRVNPSSDLL-SHKREAYRAGSMQGEDLGNHTVRSRFCNFPEKLVKRLTVVPSTQCHR
ASRQPVGRVMGSCAFG--KKNQSF
>sp12 356 bases EF1796D checksum.
RVELRLHQLGGHRMTEGFSIILKGRKAIGLGKGDHANNLFCSSIQCTAVKKYNCPISSRF
APQNKLLNNVHAPSLGKYKNLMKQ--GGFCKGTSANKAIVEFHYTERFIVINSIEPPGLS
LKLLEILNSNGAYKSV-RIKEPG--KDWSEPRPSYPMGKGNTFKRVNTCVEKKTKHHKQS
NLLTANYLAKANCAQQASGIVKGIQQPYGLVIYPLVGVKLLEFHLDGADKDFIAHVSAGK
MAIPVNPSSDAVPSHKRQAYRASSMEAGDLGNHTVRSRFCNFPEKLVKRLNMVPC-----
-TRRPVGRVKNSCGFG--KKHQFF
>sp1 355 bases 5A9B0D6C checksum.
AVELKLHQLGGHKMTEGFSIALKGRKAIGLGKGDHANNLVCNHINCTAAKKYKCPISSRF
APQDTLLNYVHTPPLGKYKTLMKQ--GGFCSGTTGNNAIVEFHFTERSIVINTVEPPGLS
LKLVEILNADAEFKSV-RTKETGGPEGWSEPRPTYPMGKGNTFKRVNTCVEKKTKHHSQP
NLVTAVYLAKGNCAQQASGIVKGIQQPYTLVVYGLV-VSLLDFRRDGAEKDFISHVSATK
MALLVSPSNNCLPSHDR-AFRRSSMEVDDLGNHTVRSRFCDFPERFIKRLNVADC-----
-TRARAGRV---CGFGRTKQH-GF
>sp13 356 bases EE7FB97E checksum.
GVELKLHQLGGHKMTEGFSIILKGRKAIGLGKGDHANNLFCNHIQCTAVKKYNCPISSRF
APQNTLLNNVHAPSLGKYKNLMKQ--GGFCTGTTGNKAIVEFHFTERFIVINTVEPPGLS
LKLVEILNPNAAYKSV-KIKEPGGPEGWSEPRPSYPMGKGNTFKRVNTCVEKKTKHHKQP
NLLTANYLAKINCAQQASGIVKGIQQPYTLVVYPLVGVSLLDFRRDGAEKDFIAHVSAGK
MALLVNPSSNVLPSHKRQAYRASSMEVEDLGNHTVRSRFCDFPERLIKRLNVTPC-----
-TRRPVGRVMNSCGFGRTKQHQFF
>sp14 353 bases 65607D33 checksum.
GVELKLHQFGGHKMTEGFSIILKGRKAIGLGKGDHANNLFCNHIQCTAVKKYNCPISSRF
APQNTLLNDVHAPSLGKYKNLMKQ--GGFCTGTTGNKAIVEFHFTERFIVINTVAPPGLS
LKLVEILNPNAAYKSV-RIKEPGGPEGWSEPRPSYPMGKGNTFKRVETCVEKKTKHHKQP
DLLTANYLAKTNCAQQASGIVKGIQHPYTLVVYPLVGVSLLELHRDSAEKDFIAHVSAGS
MALLVDPSSNVLPSHQRQAYRATSMEVEDLGNHTVRSRFCDFPERLIKRLNIVPC-----
-TR--VGRIMSSCGFDRTKQHQFF
>sp15 358 bases 51699126 checksum.
GVEVKLHEVGGHKMTQGFNIVLKGQKAIGLGKGDDANNLYCICISCTAVKKYHCPISSRF
APQHALLHYVSAPNLGKYKNVVMAGSNGFCVGTTANKAIVEFHYTQRFIIINSIDPPGLS
LKLVEILNSYVGYKAV-RIKESGG--GWSEPRPSYPMGKGNTFKRVSTCVEKRTKHHKQS
NLKTGAYLAKANCNEQVTGILEGIQTPYGIILY----PKLLEFR---AKKDFIAHVSAGK
MALLVNPSSEVLPSHVREEYPAGSMEVDDLGSHTVRSSFCNFPAKLVKRLNKPHCCGANS
VARRQGGTVMLGCGYA--KKNQTF
>sp5 367 bases 5106F582 checksum.
GVGLKLHELGGHKMTQGFDIVLKGRKAIGLGKGDDANNLYCIKISCSAVKKYNCPISSRF
APQHPLLHNVGPPKLAKYDNLVHQGSGGYCTGTSNNKAIVEFHYTHRFILINTIDPPGLN
LKLVEILNSYTGYKSVPIVKETTG--DWSEPRPGYKMGKGNTFKRVNKCVEKKTKHHKQS
NLTTGNYAAKANCNEQVSGITEGLRGPYGLILG----AKLLEFNKEAKDQDFIEHVTAGK
MALLVSPSSQ---PHKRESYRAGSMEVDDLGNHTVRSKFCNFPCKLVKRLHILACCASD-
-ESRSGSTAKYPCGFG--KKQLLF
>sp4 351 bases B4B1F11B checksum.
AVQLKLHELGGHKMTQGFNIVLMGRKAIGLGAGDDANNLYCLKISCSAVKKYNCPISSRF
TPQHPLLHNI--PKQGKYQNLVHQSSEVFCTGTSNNKAIVEFHYTERFILINTEEKPGLS
LKLDEILNTYTGYKSVPIHKETTG--DWSEPRPSNPMGKGNTFKRVNTCVEKKTKHHKQC
NLTTDDYLARAGCNEQVSGIVEGMRGPYGLRMG----AKLLEFKRDAK-QDFIAHVSAGK
MALLVSPSSD---PHRR-AYRAGSMEVDDLGNHSVRSKFCNFRAKYVKRVHKIVCILQPK
PAAR-GGTIKYPCGFA--KK--LF
